     303
COMMENT  TcB parTocc2xyz Temp(K):    298.000
CA                  1.04676             0.77910            13.08068
CA                  2.36850             2.68152            29.51253
CA                  8.21733             4.58464            44.66708
CA                 17.65421             8.76614            57.98349
CA                 31.28351            12.27779            65.30796
CA                 46.72866            18.20599            65.57370
CA                 60.98246            22.18065            59.47782
CA                 71.53490            25.29480            47.34644
CA                 77.96835            26.02538            32.47282
CA                 79.87336            23.32737            16.20523
CA                 76.17992            18.03584             1.32888
CA                 67.60851             9.52974           -10.51815
CA                 54.63171             1.05005           -16.05616
CA                 40.03443            -7.58942           -15.59446
CA                 26.30786           -13.35492            -7.95037
CA                 15.34102           -18.78866             3.85481
CA                 10.23014           -20.72649            19.76833
CA                 10.64031           -21.74901            36.78575
CA                 18.31349           -19.67431            51.76407
CA                 30.48555           -15.42271            62.24296
CA                 45.60768            -9.84695            67.29782
CA                 60.72660            -3.95229            66.19384
CA                 75.02855             1.33639            59.66878
CA                 85.60454             4.21829            47.40291
CA                 91.20841             4.31366            31.91227
CA                 89.00538             0.33982            15.93936
CA                 82.73746            -4.76410             1.57439
CA                 72.25436           -11.62455            -9.04452
CA                 60.57644           -16.75893           -19.11956
O                  47.97024             0.73933            27.83389
CA                 45.42527           -21.06306           -25.03223
CA                 33.98788           -26.00211           -33.02059
CA                 21.94962           -35.66736           -37.10620
CA                 10.60188           -42.69877           -44.83051
CA                  9.13946           -50.13586           -57.20805
CA                  2.60870           -57.22233           -70.17604
CA                 -0.69091           -59.89810           -84.93470
CA                 -2.76295           -70.92828           -96.80807
CA                 -3.86432           -78.24502          -111.88886
CA                 -8.46360           -89.13451          -122.12988
CA                -18.41044           -98.17272          -129.85850
CA                -29.16186          -108.23273          -135.63626
CA                -43.46451          -113.62907          -138.82062
CA                -54.71136          -123.30923          -140.74887
CA                -67.77209          -133.02404          -143.34105
CA                -82.11137          -143.15093          -143.14806
CA                -97.19673          -147.87724          -139.63024
CA               -114.09372          -147.69173          -143.93021
CA               -129.20657          -150.49520          -149.71162
CA               -143.25134          -154.26760          -157.43270
CA               -155.38243          -163.19452          -164.65691
CA               -163.83741          -175.14519          -172.53731
CA               -164.47562          -191.02320          -177.18057
CA               -159.12456          -206.64491          -179.62310
CA               -147.55889          -218.25888          -179.03741
CA               -132.99997          -225.67271          -176.22886
CA               -116.92115          -227.79787          -172.78130
CA               -101.18342          -223.58374          -168.82279
CA                -88.24403          -213.68246          -164.90636
CA                -81.10031          -198.35745          -162.46420
CA                -80.18208          -182.07590          -160.27459
CA                -86.62804          -166.30595          -160.83314
CA                -96.99733          -153.42804          -162.03576
CA               -111.42806          -145.90924          -167.21114
CA               -126.62049          -144.03814          -173.54284
CA               -140.18914          -149.03298          -182.50278
CA               -149.57426          -159.59093          -190.27654
CA               -154.40066          -174.18138          -196.82975
CA               -153.73796          -189.80153          -200.93768
CA               -147.90627          -205.02995          -202.34871
CA               -136.78658          -216.72321          -202.05232
CA               -122.07792          -223.38535          -199.27629
CA               -106.49421          -222.40258          -196.19118
CA                -92.24584          -215.64076          -190.75523
CA                -80.99763          -204.83067          -186.34560
CA                -73.16569          -191.73890          -179.87806
O                -121.87326          -187.42998          -176.63554
CA                -65.82293          -177.96406          -174.73073
CA                -55.71011          -167.17933          -167.74818
CA                -41.58392          -161.48676          -172.13111
CA                -27.05947          -155.59539          -169.34559
CA                -12.37735          -147.78671          -169.06278
CA                  2.07042          -142.61235          -168.24206
CA                 17.31475          -140.89821          -171.17910
CA                 32.16946          -139.35448          -173.10594
CA                 43.70925          -131.41124          -165.49898
CA                 52.88914          -127.12666          -153.72016
CA                 60.73345          -123.68002          -139.75730
CA                 69.35645          -116.89087          -129.10506
CA                 82.32348          -116.28582          -119.23726
CA                 97.09291          -118.86927          -114.66114
CA                112.59151          -122.77672          -112.53145
CA                128.10695          -122.97770          -114.21363
CA                142.91203          -119.60914          -118.36720
CA                155.58361          -111.40025          -119.02489
CA                170.35910          -105.57283          -124.23958
CA                184.16612          -100.27037          -127.30994
CA                196.04938          -100.00490          -134.36448
CA                209.68936           -97.64090          -142.86557
CA                223.99832           -94.48473          -150.65428
CA                236.03516           -87.25331          -159.03952
CA                246.67047           -75.98106          -165.64957
CA                250.85659           -61.54582          -170.73266
CA                249.81004           -45.03363          -170.59382
CA                242.82192           -30.83503          -168.20759
CA                231.35565           -20.81917          -162.17189
CA                217.54897           -15.71089          -155.35804
CA                202.13871           -16.18785          -149.20666
CA                188.13970           -22.71061          -144.26411
CA                176.43380           -34.73263          -142.11522
CA                171.19106           -50.33666          -142.11310
CA                171.32310           -67.05206          -145.03067
CA                178.60934           -81.33642          -149.82227
CA                188.80254           -92.64569          -157.39584
CA                202.54989           -96.92137          -166.10476
CA                216.19115           -95.68096          -176.26270
CA                227.67760           -86.71677          -184.93662
CA                235.24489           -73.10789          -190.73119
CA                238.12294           -56.67516          -193.37722
CA                236.00093           -40.57718          -192.42877
CA                229.26985           -25.86296          -188.78506
CA                217.57361           -15.92421          -182.86662
CA                203.16713           -11.86849          -175.98354
CA                188.48501           -16.59520          -169.82951
CA                175.68820           -25.37938          -164.28251
CA                166.30594           -38.44160          -160.95479
CA                158.52266           -51.90350          -156.21772
O                 209.53958           -53.35601          -164.27348
CA                152.94703           -65.89121          -153.18535
CA                142.28532           -76.47924          -146.12694
CA                129.97654           -85.38674          -140.55346
CA                121.23801           -95.89516          -133.48109
CA                110.35628          -105.81286          -126.49543
CA                100.61438          -117.79658          -128.18168
CA                 85.38843          -123.74009          -131.45924
CA                 72.18836          -133.19721          -135.67832
CA                 61.22272          -144.67520          -137.30787
CA                 55.03704          -157.16463          -144.67667
CA                 51.57302          -170.33275          -153.58634
CA                 45.26180          -180.48724          -165.24812
CA                 36.62579          -188.84021          -175.18444
CA                 28.99535          -194.84456          -188.28737
CA                 26.37015          -198.25609          -203.74101
CA                 23.87955          -202.96516          -219.50298
CA                 20.04645          -203.11800          -234.08074
CA                 19.28337          -209.12241          -247.17344
CA                 22.43285          -214.78616          -262.63613
CA                 25.73610          -219.24509          -277.53580
CA                 22.20784          -223.03496          -293.63510
CA                 23.56163          -225.40894          -310.94493
CA                 25.58821          -230.01443          -326.37563
CA                 31.36341          -231.82357          -341.88336
CA                 42.51194          -234.68329          -351.57983
CA                 53.26885          -232.25004          -363.62891
CA                 64.02085          -229.09095          -375.05104
CA                 73.89450          -226.07993          -387.82317
CA                 83.68512          -225.44211          -401.04583
CA                 88.97989          -226.71890          -416.83752
CA                 90.76895          -231.28024          -432.72459
CA                 84.01345          -238.51506          -445.99483
CA                 72.87205          -247.22413          -454.86382
CA                 59.05257          -255.95440          -456.20415
CA                 44.90217          -263.53015          -452.05818
CA                 32.79663          -270.14001          -442.85514
CA                 24.47702          -274.60606          -429.00077
CA                 21.20907          -276.17759          -412.64069
CA                 25.29228          -274.41404          -396.14613
CA                 33.53135          -269.19425          -382.89481
CA                 47.06659          -262.24346          -375.21122
CA                 61.35232          -254.35528          -372.29515
CA                 76.83757          -248.71463          -376.76204
CA                 89.93359          -244.95771          -386.18443
CA                 99.41440          -245.86971          -400.27768
CA                102.50904          -249.49414          -415.68122
CA                 99.93026          -255.63612          -431.00262
CA                 92.31363          -263.09601          -443.15336
CA                 80.56449          -271.14963          -451.21570
CA                 67.10574          -279.88499          -452.95444
CA                 53.35234          -287.38550          -448.15637
CA                 43.63065          -293.25348          -437.00329
CA                 36.85603          -295.09819          -421.87090
CA                 34.79673          -295.12367          -405.79036
CA                 34.85087          -291.06930          -389.72418
O                  62.46224          -260.63576          -416.42475
CA                 38.31189          -287.82649          -374.32620
CA                 42.15475          -288.28447          -358.51305
CA                 43.73639          -291.75011          -342.53059
CA                 47.35791          -298.78921          -329.25270
CA                 49.49371          -302.24705          -312.45669
CA                 43.26236          -303.22657          -296.09613
CA                 40.91138          -307.00724          -278.52235
CA                 34.18050          -302.72442          -265.72232
CA                 31.58916          -303.34464          -251.43835
CA                 22.81939          -302.23076          -238.00581
CA                 17.59920          -296.01695          -223.32157
CA                 16.97747          -289.67270          -209.83026
CA                 15.52563          -281.84721          -196.65261
CA                  7.11549          -279.07862          -184.38526
CA                 -0.77926          -272.76492          -172.08349
CA                -11.13229          -265.88155          -161.26640
CA                -19.94637          -257.80496          -152.68506
CA                -32.20687          -261.33542          -142.96289
CA                -41.31671          -268.22921          -131.14143
CA                -49.43158          -276.52896          -121.37677
CA                -61.37719          -285.83754          -115.95103
CA                -72.00085          -295.13838          -106.38633
CA                -78.77100          -306.42467           -98.46172
CA                -80.90819          -314.51211           -82.93301
CA                -87.49436          -325.42147           -72.53567
CA                -99.32515          -335.24227           -65.55679
CA               -110.42270          -345.60524           -66.89469
CA               -122.22655          -354.89701           -69.90250
CA               -136.06081          -361.24138           -68.06921
CA               -150.41886          -364.36334           -72.76431
CA               -165.53598          -369.66470           -76.37684
CA               -179.61527          -377.03578           -80.68298
CA               -192.25447          -387.95299           -81.01051
CA               -201.47751          -401.70235           -79.49515
CA               -203.35886          -416.50451           -72.32331
CA               -199.32114          -429.89640           -63.21334
CA               -188.83745          -438.56599           -54.05241
CA               -175.07403          -442.77318           -45.82547
CA               -159.35465          -442.72006           -40.55017
CA               -143.43664          -437.63712           -39.17689
CA               -129.80689          -428.26985           -41.87600
CA               -121.42930          -415.64678           -49.77076
CA               -119.15927          -402.21544           -58.99965
CA               -124.18297          -390.69131           -70.51097
CA               -133.34622          -381.55959           -80.87705
CA               -146.90085          -378.87789           -90.90918
CA               -161.67212          -381.10345           -98.06863
CA               -175.34643          -390.23203          -102.42977
CA               -185.37721          -402.84251          -101.84538
CA               -191.25821          -417.80064           -97.28601
CA               -191.83796          -432.10885           -89.78651
CA               -187.31869          -444.53611           -80.14059
CA               -177.27719          -453.43970           -71.17609
CA               -163.29802          -457.12168           -63.46501
CA               -147.78911          -455.00181           -60.58137
CA               -133.17645          -446.97951           -59.94829
CA               -121.16622          -436.53548           -63.03076
CA               -112.42089          -422.87148           -66.40380
O                -160.64182          -415.36502           -70.86503
CA               -103.80739          -409.71746           -70.29665
CA               -104.58083          -394.73191           -74.03015
CA                -97.85991          -380.54938           -78.85999
CA                -84.22263          -371.45351           -80.06838
CA                -68.78492          -368.38535           -82.54083
CA                -54.29457          -374.83366           -85.72391
CA                -39.99657          -380.70646           -81.85454
CA                -24.99226          -385.07053           -76.92519
CA                -11.16601          -384.27132           -68.53036
CA                 -0.28586          -387.57429           -58.39339
CA                 12.78887          -385.91117           -52.24148
CA                 26.88305          -384.93283           -54.69467
CA                 38.94035          -377.94670           -59.36291
CA                 51.75293          -368.74250           -64.56432
CA                 65.40187          -364.52143           -72.08642
CA                 76.97685          -355.65268           -77.20396
CA                 86.73088          -348.74614           -88.09154
CA                 93.73714          -337.18472           -95.66269
CA                101.33047          -326.12473          -102.38789
CA                108.28635          -318.92837          -115.77125
CA                115.65090          -309.80034          -127.26581
CA                121.80419          -298.78970          -137.84903
CA                129.96209          -285.49343          -143.82402
CA                137.21632          -270.61253          -145.35383
CA                143.80027          -257.46677          -137.74335
CA                147.89044          -247.36236          -125.10179
CA                147.73240          -243.20876          -109.23627
CA                144.69941          -243.86149           -92.95163
CA                138.16746          -248.43742           -78.41460
CA                128.59876          -257.09471           -67.70964
CA                117.52124          -268.53598           -62.49550
CA                106.06925          -280.90039           -65.29308
CA                 97.69006          -292.41910           -73.52925
CA                 92.46251          -300.04912           -87.84740
CA                 90.84279          -304.70042          -103.67620
CA                 92.38802          -302.28248          -120.50857
CA                 96.88014          -295.47204          -134.92523
CA                102.72043          -282.86194          -144.73410
CA                109.81949          -268.70658          -147.76912
CA                117.11762          -254.01095          -144.62343
CA                123.07992          -241.69019          -136.02382
CA                127.25053          -232.71924          -122.98417
CA                127.24010          -228.20542          -107.48924
CA                123.67927          -229.30631           -91.53481
CA                115.50589          -235.33958           -79.28201
CA                106.25805          -246.36903           -70.84896
CA                 95.97438          -258.40392           -67.35140
CA                 87.65225          -272.73235           -67.31853
O                 116.44427          -268.32254          -106.72768
CA                 79.74163          -286.52187           -67.96991
CA                 83.70847          -303.14131           -66.30834
CA                 80.87835          -318.15868           -61.38827
CA                 86.18338          -333.47853           -61.51685
CA                 93.81547          -346.16423           -63.15672
CA                101.61256          -355.32195           -72.55217
CA                112.95326          -365.27309           -77.40299
CA                126.53096          -373.12661           -81.44412
CA                140.55254          -375.98238           -90.12927
CA                155.00465          -385.59570           -90.49376
CA                167.97101          -394.02955           -92.99698
